
OS:Version,
  {009fa45e-db31-45e7-8ce7-71908c7f2d6b}, !- Handle
  3.6.1;                                  !- Version Identifier

OS:Site,
  {58c3e201-6a59-4e04-9084-6f2e18cb7de9}, !- Handle
  Columbia Regional Airport,              !- Name
  38.82,                                  !- Latitude {deg}
  -92.22,                                 !- Longitude {deg}
  -6,                                     !- Time Zone {hr}
  272,                                    !- Elevation {m}
  ;                                       !- Terrain

OS:YearDescription,
  {9ec47b4f-21ab-4368-9b99-504f55fbb954}, !- Handle
  ,                                       !- Calendar Year
  Sunday;                                 !- Day of Week for Start Day

OS:ClimateZones,
  {49d07dd7-8dea-49ed-878d-4b3a3ab5537a}, !- Handle
  ASHRAE,                                 !- Climate Zone Institution Name 1
  ANSI/ASHRAE Standard 169,               !- Climate Zone Document Name 1
  2006,                                   !- Climate Zone Document Year 1
  4A,                                     !- Climate Zone Value 1
  CEC,                                    !- Climate Zone Institution Name 2
  California Climate Zone Descriptions,   !- Climate Zone Document Name 2
  1995,                                   !- Climate Zone Document Year 2
  ;                                       !- Climate Zone Value 2

OS:Building,
  {831ba029-d703-4bad-b49e-5511ed06736f}, !- Handle
  Building 1,                             !- Name
  ,                                       !- Building Sector Type
  -0,                                     !- North Axis {deg}
  ,                                       !- Nominal Floor to Floor Height {m}
  ,                                       !- Space Type Name
  ,                                       !- Default Construction Set Name
  ;                                       !- Default Schedule Set Name

OS:Facility,
  {ba1df8aa-2f1e-408f-afeb-9eec1bd3203d}; !- Handle

OS:SimulationControl,
  {03c678b5-5730-40de-8ef4-390c70fd8b2f}; !- Handle

OS:Sizing:Parameters,
  {7c3ea470-214c-4647-9d2d-8dc432d14e14}, !- Handle
  1.25,                                   !- Heating Sizing Factor
  1.15;                                   !- Cooling Sizing Factor

OS:Timestep,
  {c43b78be-eb5c-42d4-9c01-c905c9a8b950}, !- Handle
  6;                                      !- Number of Timesteps per Hour

OS:ShadowCalculation,
  {0d46d9d1-674f-41c3-a92f-c7900a6885b1}, !- Handle
  PolygonClipping,                        !- Shading Calculation Method
  ,                                       !- Shading Calculation Update Frequency Method
  20,                                     !- Shading Calculation Update Frequency
  15000,                                  !- Maximum Figures in Shadow Overlap Calculations
  ,                                       !- Polygon Clipping Algorithm
  512,                                    !- Pixel Counting Resolution
  ,                                       !- Sky Diffuse Modeling Algorithm
  No,                                     !- Output External Shading Calculation Results
  No,                                     !- Disable Self-Shading Within Shading Zone Groups
  No;                                     !- Disable Self-Shading From Shading Zone Groups to Other Zones

OS:HeatBalanceAlgorithm,
  {62361e15-6db3-4440-b331-ee3786dbea44}, !- Handle
  ConductionTransferFunction,             !- Algorithm
  200;                                    !- Surface Temperature Upper Limit {C}

OS:RunPeriod,
  {05773102-8faa-4951-85a0-f7388790f8ce}, !- Handle
  Run Period 1,                           !- Name
  1,                                      !- Begin Month
  1,                                      !- Begin Day of Month
  12,                                     !- End Month
  31,                                     !- End Day of Month
  Yes,                                    !- Use Weather File Holidays and Special Days
  Yes,                                    !- Use Weather File Daylight Saving Period
  ,                                       !- Apply Weekend Holiday Rule
  Yes,                                    !- Use Weather File Rain Indicators
  Yes,                                    !- Use Weather File Snow Indicators
  ;                                       !- Number of Times Runperiod to be Repeated

OS:LifeCycleCost:Parameters,
  {77ed1645-40be-4820-884d-b47280e97708}, !- Handle
  ,                                       !- Analysis Type
  ,                                       !- Discounting Convention
  ,                                       !- Inflation Approach
  ,                                       !- Real Discount Rate
  ,                                       !- Nominal Discount Rate
  ,                                       !- Inflation
  ,                                       !- Base Date Month
  ,                                       !- Base Date Year
  ,                                       !- Service Date Month
  ,                                       !- Service Date Year
  ;                                       !- Length of Study Period in Years

OS:Space,
  {6d69b456-6055-4baf-bfdd-c1e4bfd9d36e}, !- Handle
  Space1,                                 !- Name
  {47732671-e107-411c-9560-b67e1379d077}, !- Space Type Name
  {2ce12650-8bdf-4d7f-96de-7a1a2cc140ea}, !- Default Construction Set Name
  {776ee309-97a0-4fe9-a6d9-8e5ad0eaa308}, !- Default Schedule Set Name
  ,                                       !- Direction of Relative North {deg}
  ,                                       !- X Origin {m}
  ,                                       !- Y Origin {m}
  ,                                       !- Z Origin {m}
  {86dc8280-e95c-4306-81b4-ab330b6a1ee4}, !- Building Story Name
  {091a48c4-2ab3-4f06-901a-93d1774411aa}, !- Thermal Zone Name
  ,                                       !- Part of Total Floor Area
  ,                                       !- Design Specification Outdoor Air Object Name
  ;                                       !- Building Unit Name

OS:ThermalZone,
  {091a48c4-2ab3-4f06-901a-93d1774411aa}, !- Handle
  ThermalZone1,                           !- Name
  1,                                      !- Multiplier
  ,                                       !- Ceiling Height {m}
  ,                                       !- Volume {m3}
  ,                                       !- Floor Area {m2}
  ,                                       !- Zone Inside Convection Algorithm
  ,                                       !- Zone Outside Convection Algorithm
  ,                                       !- Zone Conditioning Equipment List Name
  {26c8e8bd-5c3e-429d-af34-11cefe18116d}, !- Zone Air Inlet Port List
  {8a20f611-f753-4491-855a-69b036ed4b21}, !- Zone Air Exhaust Port List
  {d68a09cd-5ab1-4272-980a-9a83505d39a3}, !- Zone Air Node Name
  {f31f9a04-6c60-4448-bb77-5e7de17cf8ec}, !- Zone Return Air Port List
  ,                                       !- Primary Daylighting Control Name
  ,                                       !- Fraction of Zone Controlled by Primary Daylighting Control
  ,                                       !- Secondary Daylighting Control Name
  ,                                       !- Fraction of Zone Controlled by Secondary Daylighting Control
  ,                                       !- Illuminance Map Name
  {61f928b4-6af6-4262-ad3a-cb46e7814492}, !- Group Rendering Name
  {dafde120-038f-4114-b378-753a0913cbd1}, !- Thermostat Name
  Yes;                                    !- Use Ideal Air Loads

OS:Node,
  {ae686406-c293-4f53-94f9-64e9a674f88d}, !- Handle
  Node 1,                                 !- Name
  {d68a09cd-5ab1-4272-980a-9a83505d39a3}, !- Inlet Port
  ;                                       !- Outlet Port

OS:Connection,
  {d68a09cd-5ab1-4272-980a-9a83505d39a3}, !- Handle
  {091a48c4-2ab3-4f06-901a-93d1774411aa}, !- Source Object
  11,                                     !- Outlet Port
  {ae686406-c293-4f53-94f9-64e9a674f88d}, !- Target Object
  2;                                      !- Inlet Port

OS:PortList,
  {26c8e8bd-5c3e-429d-af34-11cefe18116d}, !- Handle
  {091a48c4-2ab3-4f06-901a-93d1774411aa}; !- HVAC Component

OS:PortList,
  {8a20f611-f753-4491-855a-69b036ed4b21}, !- Handle
  {091a48c4-2ab3-4f06-901a-93d1774411aa}; !- HVAC Component

OS:PortList,
  {f31f9a04-6c60-4448-bb77-5e7de17cf8ec}, !- Handle
  {091a48c4-2ab3-4f06-901a-93d1774411aa}; !- HVAC Component

OS:Sizing:Zone,
  {844900d2-f236-4deb-89b7-2baebf7ca1a2}, !- Handle
  {091a48c4-2ab3-4f06-901a-93d1774411aa}, !- Zone or ZoneList Name
  SupplyAirTemperature,                   !- Zone Cooling Design Supply Air Temperature Input Method
  14,                                     !- Zone Cooling Design Supply Air Temperature {C}
  11.11,                                  !- Zone Cooling Design Supply Air Temperature Difference {deltaC}
  SupplyAirTemperature,                   !- Zone Heating Design Supply Air Temperature Input Method
  40,                                     !- Zone Heating Design Supply Air Temperature {C}
  11.11,                                  !- Zone Heating Design Supply Air Temperature Difference {deltaC}
  0.0085,                                 !- Zone Cooling Design Supply Air Humidity Ratio {kg-H2O/kg-air}
  0.008,                                  !- Zone Heating Design Supply Air Humidity Ratio {kg-H2O/kg-air}
  ,                                       !- Zone Heating Sizing Factor
  ,                                       !- Zone Cooling Sizing Factor
  DesignDay,                              !- Cooling Design Air Flow Method
  ,                                       !- Cooling Design Air Flow Rate {m3/s}
  ,                                       !- Cooling Minimum Air Flow per Zone Floor Area {m3/s-m2}
  ,                                       !- Cooling Minimum Air Flow {m3/s}
  ,                                       !- Cooling Minimum Air Flow Fraction
  DesignDay,                              !- Heating Design Air Flow Method
  ,                                       !- Heating Design Air Flow Rate {m3/s}
  ,                                       !- Heating Maximum Air Flow per Zone Floor Area {m3/s-m2}
  ,                                       !- Heating Maximum Air Flow {m3/s}
  ,                                       !- Heating Maximum Air Flow Fraction
  No,                                     !- Account for Dedicated Outdoor Air System
  NeutralSupplyAir,                       !- Dedicated Outdoor Air System Control Strategy
  autosize,                               !- Dedicated Outdoor Air Low Setpoint Temperature for Design {C}
  autosize,                               !- Dedicated Outdoor Air High Setpoint Temperature for Design {C}
  Sensible Load Only No Latent Load,      !- Zone Load Sizing Method
  HumidityRatioDifference,                !- Zone Latent Cooling Design Supply Air Humidity Ratio Input Method
  ,                                       !- Zone Dehumidification Design Supply Air Humidity Ratio {kgWater/kgDryAir}
  0.005,                                  !- Zone Cooling Design Supply Air Humidity Ratio Difference {kgWater/kgDryAir}
  HumidityRatioDifference,                !- Zone Latent Heating Design Supply Air Humidity Ratio Input Method
  ,                                       !- Zone Humidification Design Supply Air Humidity Ratio {kgWater/kgDryAir}
  0.005;                                  !- Zone Humidification Design Supply Air Humidity Ratio Difference {kgWater/kgDryAir}

OS:ZoneHVAC:EquipmentList,
  {260b79df-4c9d-4415-be3a-f766d6ec61eb}, !- Handle
  Zone HVAC Equipment List 1,             !- Name
  {091a48c4-2ab3-4f06-901a-93d1774411aa}, !- Thermal Zone
  ;                                       !- Load Distribution Scheme

OS:Rendering:Color,
  {61f928b4-6af6-4262-ad3a-cb46e7814492}, !- Handle
  Rendering Color 1,                      !- Name
  136,                                    !- Rendering Red Value
  204,                                    !- Rendering Green Value
  238,                                    !- Rendering Blue Value
  255;                                    !- Rendering Alpha Value

OS:BuildingStory,
  {86dc8280-e95c-4306-81b4-ab330b6a1ee4}, !- Handle
  Story1,                                 !- Name
  0,                                      !- Nominal Z Coordinate {m}
  3.048,                                  !- Nominal Floor to Floor Height {m}
  ,                                       !- Default Construction Set Name
  ,                                       !- Default Schedule Set Name
  {8d01107e-cdfb-4800-95e9-cecd9c77edb1}, !- Group Rendering Name
  3.048;                                  !- Nominal Floor to Ceiling Height {m}

OS:Rendering:Color,
  {8d01107e-cdfb-4800-95e9-cecd9c77edb1}, !- Handle
  Rendering Color 2,                      !- Name
  51,                                     !- Rendering Red Value
  34,                                     !- Rendering Green Value
  136,                                    !- Rendering Blue Value
  255;                                    !- Rendering Alpha Value

OS:RadianceParameters,
  {12e1a8ad-7cc8-4bb1-9208-58b866128704}, !- Handle
  1,                                      !- Accumulated Rays per Record
  0,                                      !- Direct Threshold
  1,                                      !- Direct Certainty
  1,                                      !- Direct Jitter
  1,                                      !- Direct Pretest
  6,                                      !- Ambient Bounces VMX
  2,                                      !- Ambient Bounces DMX
  4050,                                   !- Ambient Divisions VMX
  512,                                    !- Ambient Divisions DMX
  256,                                    !- Ambient Supersamples
  0.001,                                  !- Limit Weight VMX
  0.001,                                  !- Limit Weight DMX
  500,                                    !- Klems Sampling Density
  146;                                    !- Sky Discretization Resolution

OS:ProgramControl,
  {f7b087ae-4f17-45d8-8dfc-fbbf0ac23c60}; !- Handle

OS:OutputControl:ReportingTolerances,
  {da1e004a-577b-4f5c-b3a5-d4b45d941c73}; !- Handle

OS:ConvergenceLimits,
  {ec8e4950-0c56-4f13-a4ef-8f0385b1e47e}, !- Handle
  1;                                      !- Minimum System Timestep {minutes}

OS:SurfaceConvectionAlgorithm:Inside,
  {6fe9e2c3-7b0a-4ecb-9211-a29bf1a971a5}, !- Handle
  TARP;                                   !- Algorithm

OS:SurfaceConvectionAlgorithm:Outside,
  {bb109f9c-0c63-49b3-9e5c-ea46b9c00d58}, !- Handle
  DOE-2;                                  !- Algorithm

OS:ZoneAirHeatBalanceAlgorithm,
  {81ceecdd-a8ae-4430-8b16-cf6af1dcec9f}, !- Handle
  ,                                       !- Algorithm
  ,                                       !- Do Space Heat Balance for Sizing
  ;                                       !- Do Space Heat Balance for Simulation

OS:ZoneAirContaminantBalance,
  {c7ccc8e0-ae37-43b5-80e9-0791061e6744}; !- Handle

OS:ZoneCapacitanceMultiplier:ResearchSpecial,
  {36b7ed03-0974-48ed-8fd0-72c67fe1f64f}, !- Handle
  ,                                       !- Temperature Capacity Multiplier
  ,                                       !- Humidity Capacity Multiplier
  ;                                       !- Carbon Dioxide Capacity Multiplier

OS:Output:JSON,
  {20125c04-1cab-49ae-9da1-c0420b81c1cd}, !- Handle
  TimeSeriesAndTabular,                   !- Option Type
  No,                                     !- Output JSON
  No,                                     !- Output CBOR
  No;                                     !- Output MessagePack

OS:Output:Table:SummaryReports,
  {fa072fce-b3fe-4e3d-b894-6aee87a1d9c9}, !- Handle
  AllSummary;                             !- Report Name 1

OS:Output:Diagnostics,
  {142170a8-02a6-4fde-ae33-cb133212f96e}; !- Handle

OS:SizingPeriod:DesignDay,
  {1cc09e4e-bbee-4ec3-96fd-586b6241c2fb}, !- Handle
  Columbia Regional Airport Ann Clg .4% Condns Enth=>MDB, !- Name
  31.9,                                   !- Maximum Dry-Bulb Temperature {C}
  11,                                     !- Daily Dry-Bulb Temperature Range {deltaC}
  98100,                                  !- Barometric Pressure {Pa}
  4.4,                                    !- Wind Speed {m/s}
  220,                                    !- Wind Direction {deg}
  ,                                       !- Sky Clearness
  No,                                     !- Rain Indicator
  No,                                     !- Snow Indicator
  21,                                     !- Day of Month
  7,                                      !- Month
  SummerDesignDay,                        !- Day Type
  No,                                     !- Daylight Saving Time Indicator
  Enthalpy,                               !- Humidity Condition Type
  ,                                       !- Humidity Condition Day Schedule Name
  23,                                     !- Wetbulb or DewPoint at Maximum Dry-Bulb {C}
  ,                                       !- Humidity Ratio at Maximum Dry-Bulb {kgWater/kgDryAir}
  82700,                                  !- Enthalpy at Maximum Dry-Bulb {J/kg}
  DefaultMultipliers,                     !- Dry-Bulb Temperature Range Modifier Type
  ,                                       !- Dry-Bulb Temperature Range Modifier Day Schedule Name
  ASHRAETau,                              !- Solar Model Indicator
  ,                                       !- Beam Solar Day Schedule Name
  ,                                       !- Diffuse Solar Day Schedule Name
  0.448,                                  !- ASHRAE Clear Sky Optical Depth for Beam Irradiance {dimensionless}
  2.098;                                  !- ASHRAE Clear Sky Optical Depth for Diffuse Irradiance {dimensionless}

OS:SizingPeriod:DesignDay,
  {2b9110e7-a8be-4ead-acd6-4a2d7564d50b}, !- Handle
  Columbia Regional Airport Ann Clg .4% Condns DP=>MDB, !- Name
  29.6,                                   !- Maximum Dry-Bulb Temperature {C}
  11,                                     !- Daily Dry-Bulb Temperature Range {deltaC}
  98100,                                  !- Barometric Pressure {Pa}
  4.4,                                    !- Wind Speed {m/s}
  220,                                    !- Wind Direction {deg}
  ,                                       !- Sky Clearness
  No,                                     !- Rain Indicator
  No,                                     !- Snow Indicator
  21,                                     !- Day of Month
  7,                                      !- Month
  SummerDesignDay,                        !- Day Type
  No,                                     !- Daylight Saving Time Indicator
  Dewpoint,                               !- Humidity Condition Type
  ,                                       !- Humidity Condition Day Schedule Name
  24.6,                                   !- Wetbulb or DewPoint at Maximum Dry-Bulb {C}
  ,                                       !- Humidity Ratio at Maximum Dry-Bulb {kgWater/kgDryAir}
  ,                                       !- Enthalpy at Maximum Dry-Bulb {J/kg}
  DefaultMultipliers,                     !- Dry-Bulb Temperature Range Modifier Type
  ,                                       !- Dry-Bulb Temperature Range Modifier Day Schedule Name
  ASHRAETau,                              !- Solar Model Indicator
  ,                                       !- Beam Solar Day Schedule Name
  ,                                       !- Diffuse Solar Day Schedule Name
  0.448,                                  !- ASHRAE Clear Sky Optical Depth for Beam Irradiance {dimensionless}
  2.098;                                  !- ASHRAE Clear Sky Optical Depth for Diffuse Irradiance {dimensionless}

OS:SizingPeriod:DesignDay,
  {ba61b001-473e-41fc-91a5-eb3cdab30e5e}, !- Handle
  Columbia Regional Airport Ann Clg .4% Condns WB=>MDB, !- Name
  31.9,                                   !- Maximum Dry-Bulb Temperature {C}
  11,                                     !- Daily Dry-Bulb Temperature Range {deltaC}
  98100,                                  !- Barometric Pressure {Pa}
  4.4,                                    !- Wind Speed {m/s}
  220,                                    !- Wind Direction {deg}
  ,                                       !- Sky Clearness
  No,                                     !- Rain Indicator
  No,                                     !- Snow Indicator
  21,                                     !- Day of Month
  7,                                      !- Month
  SummerDesignDay,                        !- Day Type
  No,                                     !- Daylight Saving Time Indicator
  Wetbulb,                                !- Humidity Condition Type
  ,                                       !- Humidity Condition Day Schedule Name
  26.2,                                   !- Wetbulb or DewPoint at Maximum Dry-Bulb {C}
  ,                                       !- Humidity Ratio at Maximum Dry-Bulb {kgWater/kgDryAir}
  ,                                       !- Enthalpy at Maximum Dry-Bulb {J/kg}
  DefaultMultipliers,                     !- Dry-Bulb Temperature Range Modifier Type
  ,                                       !- Dry-Bulb Temperature Range Modifier Day Schedule Name
  ASHRAETau,                              !- Solar Model Indicator
  ,                                       !- Beam Solar Day Schedule Name
  ,                                       !- Diffuse Solar Day Schedule Name
  0.448,                                  !- ASHRAE Clear Sky Optical Depth for Beam Irradiance {dimensionless}
  2.098;                                  !- ASHRAE Clear Sky Optical Depth for Diffuse Irradiance {dimensionless}

OS:SizingPeriod:DesignDay,
  {201d167e-4461-4e48-84e6-9a81defc98d5}, !- Handle
  Columbia Regional Airport Ann Clg .4% Condns DB=>MWB, !- Name
  34.8,                                   !- Maximum Dry-Bulb Temperature {C}
  11,                                     !- Daily Dry-Bulb Temperature Range {deltaC}
  98100,                                  !- Barometric Pressure {Pa}
  4.4,                                    !- Wind Speed {m/s}
  220,                                    !- Wind Direction {deg}
  ,                                       !- Sky Clearness
  No,                                     !- Rain Indicator
  No,                                     !- Snow Indicator
  21,                                     !- Day of Month
  7,                                      !- Month
  SummerDesignDay,                        !- Day Type
  No,                                     !- Daylight Saving Time Indicator
  Wetbulb,                                !- Humidity Condition Type
  ,                                       !- Humidity Condition Day Schedule Name
  24.5,                                   !- Wetbulb or DewPoint at Maximum Dry-Bulb {C}
  ,                                       !- Humidity Ratio at Maximum Dry-Bulb {kgWater/kgDryAir}
  ,                                       !- Enthalpy at Maximum Dry-Bulb {J/kg}
  DefaultMultipliers,                     !- Dry-Bulb Temperature Range Modifier Type
  ,                                       !- Dry-Bulb Temperature Range Modifier Day Schedule Name
  ASHRAETau,                              !- Solar Model Indicator
  ,                                       !- Beam Solar Day Schedule Name
  ,                                       !- Diffuse Solar Day Schedule Name
  0.448,                                  !- ASHRAE Clear Sky Optical Depth for Beam Irradiance {dimensionless}
  2.098;                                  !- ASHRAE Clear Sky Optical Depth for Diffuse Irradiance {dimensionless}

OS:SizingPeriod:DesignDay,
  {41d88d13-4119-4458-90e6-3aa83ddb5071}, !- Handle
  Columbia Regional Airport Ann Htg Wind 99.6% Condns WS=>MCDB, !- Name
  2,                                      !- Maximum Dry-Bulb Temperature {C}
  0,                                      !- Daily Dry-Bulb Temperature Range {deltaC}
  98100,                                  !- Barometric Pressure {Pa}
  12.5,                                   !- Wind Speed {m/s}
  280,                                    !- Wind Direction {deg}
  0,                                      !- Sky Clearness
  No,                                     !- Rain Indicator
  No,                                     !- Snow Indicator
  21,                                     !- Day of Month
  1,                                      !- Month
  WinterDesignDay,                        !- Day Type
  No,                                     !- Daylight Saving Time Indicator
  Wetbulb,                                !- Humidity Condition Type
  ,                                       !- Humidity Condition Day Schedule Name
  2,                                      !- Wetbulb or DewPoint at Maximum Dry-Bulb {C}
  ,                                       !- Humidity Ratio at Maximum Dry-Bulb {kgWater/kgDryAir}
  ,                                       !- Enthalpy at Maximum Dry-Bulb {J/kg}
  DefaultMultipliers,                     !- Dry-Bulb Temperature Range Modifier Type
  ,                                       !- Dry-Bulb Temperature Range Modifier Day Schedule Name
  ASHRAEClearSky;                         !- Solar Model Indicator

OS:SizingPeriod:DesignDay,
  {ac482930-270b-421c-a505-bc31f1765c0a}, !- Handle
  Columbia Regional Airport Ann Hum_n 99.6% Condns DP=>MCDB, !- Name
  -15.9,                                  !- Maximum Dry-Bulb Temperature {C}
  0,                                      !- Daily Dry-Bulb Temperature Range {deltaC}
  98100,                                  !- Barometric Pressure {Pa}
  4.4,                                    !- Wind Speed {m/s}
  280,                                    !- Wind Direction {deg}
  0,                                      !- Sky Clearness
  No,                                     !- Rain Indicator
  No,                                     !- Snow Indicator
  21,                                     !- Day of Month
  1,                                      !- Month
  WinterDesignDay,                        !- Day Type
  No,                                     !- Daylight Saving Time Indicator
  Dewpoint,                               !- Humidity Condition Type
  ,                                       !- Humidity Condition Day Schedule Name
  -22,                                    !- Wetbulb or DewPoint at Maximum Dry-Bulb {C}
  ,                                       !- Humidity Ratio at Maximum Dry-Bulb {kgWater/kgDryAir}
  ,                                       !- Enthalpy at Maximum Dry-Bulb {J/kg}
  DefaultMultipliers,                     !- Dry-Bulb Temperature Range Modifier Type
  ,                                       !- Dry-Bulb Temperature Range Modifier Day Schedule Name
  ASHRAEClearSky;                         !- Solar Model Indicator

OS:SizingPeriod:DesignDay,
  {b0ad5b7f-7c7d-49b1-9668-020d7884811b}, !- Handle
  Columbia Regional Airport Ann Htg 99.6% Condns DB, !- Name
  -17,                                    !- Maximum Dry-Bulb Temperature {C}
  0,                                      !- Daily Dry-Bulb Temperature Range {deltaC}
  98100,                                  !- Barometric Pressure {Pa}
  4.4,                                    !- Wind Speed {m/s}
  280,                                    !- Wind Direction {deg}
  0,                                      !- Sky Clearness
  No,                                     !- Rain Indicator
  No,                                     !- Snow Indicator
  21,                                     !- Day of Month
  1,                                      !- Month
  WinterDesignDay,                        !- Day Type
  No,                                     !- Daylight Saving Time Indicator
  Wetbulb,                                !- Humidity Condition Type
  ,                                       !- Humidity Condition Day Schedule Name
  -17,                                    !- Wetbulb or DewPoint at Maximum Dry-Bulb {C}
  ,                                       !- Humidity Ratio at Maximum Dry-Bulb {kgWater/kgDryAir}
  ,                                       !- Enthalpy at Maximum Dry-Bulb {J/kg}
  DefaultMultipliers,                     !- Dry-Bulb Temperature Range Modifier Type
  ,                                       !- Dry-Bulb Temperature Range Modifier Day Schedule Name
  ASHRAEClearSky;                         !- Solar Model Indicator

OS:SpaceType,
  {47732671-e107-411c-9560-b67e1379d077}, !- Handle
  Office1,                                !- Name
  {2ce12650-8bdf-4d7f-96de-7a1a2cc140ea}, !- Default Construction Set Name
  {776ee309-97a0-4fe9-a6d9-8e5ad0eaa308}, !- Default Schedule Set Name
  {828f6a16-43e4-40a9-864e-d920ee36bc42}, !- Group Rendering Name
  {3fa0e635-9afe-4774-a91d-47af0e157d71}, !- Design Specification Outdoor Air Object Name
  ,                                       !- Standards Template
  Office,                                 !- Standards Building Type
  BreakRoom;                              !- Standards Space Type

OS:DefaultScheduleSet,
  {776ee309-97a0-4fe9-a6d9-8e5ad0eaa308}, !- Handle
  Office Sch Set,                         !- Name
  ,                                       !- Hours of Operation Schedule Name
  {f3a5479e-8f65-44f4-8d1a-389d87b545f3}, !- Number of People Schedule Name
  {03b1e623-00f1-4c17-9c53-ef3b1606fa7f}, !- People Activity Level Schedule Name
  {03f00b78-d944-481b-92b6-4dcf831b2218}, !- Lighting Schedule Name
  {e5fbc081-90b7-4629-8f77-9380b342909f}, !- Electric Equipment Schedule Name
  ,                                       !- Gas Equipment Schedule Name
  ,                                       !- Hot Water Equipment Schedule Name