
OS:Version,
  {6626d3d5-0392-4ebf-8e0f-9ea2e1360246}, !- Handle
  3.6.1;                                  !- Version Identifier

OS:Site,
  {70c51cea-e0c0-431d-964e-563efbf06729}, !- Handle
  Columbia Regional Airport,              !- Name
  38.82,                                  !- Latitude {deg}
  -92.22,                                 !- Longitude {deg}
  -6,                                     !- Time Zone {hr}
  272,                                    !- Elevation {m}
  ;                                       !- Terrain

OS:YearDescription,
  {fe9b19fc-a602-40f5-aa7f-41866c663e76}, !- Handle
  ,                                       !- Calendar Year
  Sunday;                                 !- Day of Week for Start Day

OS:ClimateZones,
  {1bc4998d-00f7-4d71-9fbe-537f5036e1e2}, !- Handle
  ASHRAE,                                 !- Climate Zone Institution Name 1
  ANSI/ASHRAE Standard 169,               !- Climate Zone Document Name 1
  2006,                                   !- Climate Zone Document Year 1
  ,                                       !- Climate Zone Value 1
  CEC,                                    !- Climate Zone Institution Name 2
  California Climate Zone Descriptions,   !- Climate Zone Document Name 2
  1995,                                   !- Climate Zone Document Year 2
  ;                                       !- Climate Zone Value 2

OS:Building,
  {e9079b96-33dd-4f8c-a21d-cb4e0dba3c94}, !- Handle
  Building 1,                             !- Name
  ,                                       !- Building Sector Type
  -0,                                     !- North Axis {deg}
  ,                                       !- Nominal Floor to Floor Height {m}
  {21f12857-5296-49b6-a49a-2588aa584c26}, !- Space Type Name
  {056a2120-cf4e-4fe5-9080-2a818ef12382}, !- Default Construction Set Name
  {8655a6ac-42c2-4338-b305-3ece12038476}; !- Default Schedule Set Name

OS:Facility,
  {92126eae-852f-41fa-b16e-51d03d4c1ecd}; !- Handle

OS:SimulationControl,
  {508e0fff-8dfb-40be-b3ee-870de5f105d8}; !- Handle

OS:Sizing:Parameters,
  {687c6ce3-68cc-47f1-b3e2-b0f4f2cb71c7}, !- Handle
  1.25,                                   !- Heating Sizing Factor
  1.15;                                   !- Cooling Sizing Factor

OS:Timestep,
  {aae6e575-c71e-49ac-b680-51a8e0a14bc9}, !- Handle
  6;                                      !- Number of Timesteps per Hour

OS:ShadowCalculation,
  {09a42d20-af72-4d5a-a8ab-f0ddd3688408}, !- Handle
  PolygonClipping,                        !- Shading Calculation Method
  ,                                       !- Shading Calculation Update Frequency Method
  20,                                     !- Shading Calculation Update Frequency
  15000,                                  !- Maximum Figures in Shadow Overlap Calculations
  ,                                       !- Polygon Clipping Algorithm
  512,                                    !- Pixel Counting Resolution
  ,                                       !- Sky Diffuse Modeling Algorithm
  No,                                     !- Output External Shading Calculation Results
  No,                                     !- Disable Self-Shading Within Shading Zone Groups
  No;                                     !- Disable Self-Shading From Shading Zone Groups to Other Zones

OS:HeatBalanceAlgorithm,
  {27d0cc83-cfbe-4195-8a39-03f4aa8e0461}, !- Handle
  ConductionTransferFunction,             !- Algorithm
  200;                                    !- Surface Temperature Upper Limit {C}

OS:RunPeriod,
  {ddf36d0b-7be8-46f2-8249-6e2b3b9a165a}, !- Handle
  Run Period 1,                           !- Name
  1,                                      !- Begin Month
  1,                                      !- Begin Day of Month
  12,                                     !- End Month
  31,                                     !- End Day of Month
  ,                                       !- Use Weather File Holidays and Special Days
  ,                                       !- Use Weather File Daylight Saving Period
  ,                                       !- Apply Weekend Holiday Rule
  ,                                       !- Use Weather File Rain Indicators
  ,                                       !- Use Weather File Snow Indicators
  ;                                       !- Number of Times Runperiod to be Repeated

OS:LifeCycleCost:Parameters,
  {ad20466b-424e-427e-b71c-e29a935227d7}, !- Handle
  ,                                       !- Analysis Type
  ,                                       !- Discounting Convention
  ,                                       !- Inflation Approach
  ,                                       !- Real Discount Rate
  ,                                       !- Nominal Discount Rate
  ,                                       !- Inflation
  ,                                       !- Base Date Month
  ,                                       !- Base Date Year
  ,                                       !- Service Date Month
  ,                                       !- Service Date Year
  ;                                       !- Length of Study Period in Years

OS:Space,
  {25a2f01c-2974-4b90-badd-3a2e998ee6c9}, !- Handle
  Space 1 - 1,                            !- Name
  ,                                       !- Space Type Name
  ,                                       !- Default Construction Set Name
  ,                                       !- Default Schedule Set Name
  ,                                       !- Direction of Relative North {deg}
  ,                                       !- X Origin {m}
  ,                                       !- Y Origin {m}
  ,                                       !- Z Origin {m}
  {f1f54e2d-5e2e-421d-bab7-165f5d06a9bc}, !- Building Story Name
  {609f7551-cd6e-4c14-9de1-10fe4321822e}, !- Thermal Zone Name
  ,                                       !- Part of Total Floor Area
  ,                                       !- Design Specification Outdoor Air Object Name
  ;                                       !- Building Unit Name

OS:ThermalZone,
  {609f7551-cd6e-4c14-9de1-10fe4321822e}, !- Handle
  Thermal Zone 1,                         !- Name
  1,                                      !- Multiplier
  ,                                       !- Ceiling Height {m}
  ,                                       !- Volume {m3}
  ,                                       !- Floor Area {m2}
  ,                                       !- Zone Inside Convection Algorithm
  ,                                       !- Zone Outside Convection Algorithm
  ,                                       !- Zone Conditioning Equipment List Name
  {8919c7c8-5cf4-46e8-99f3-daeef187c21d}, !- Zone Air Inlet Port List
  {6b1f8562-f18e-42d3-9b2d-b18c436f0a56}, !- Zone Air Exhaust Port List
  {e6fea126-59dd-4ba2-80f7-d16b126aded7}, !- Zone Air Node Name
  {0d3d9ad0-4f42-42f0-b568-a0a7512b9ca4}, !- Zone Return Air Port List
  ,                                       !- Primary Daylighting Control Name
  ,                                       !- Fraction of Zone Controlled by Primary Daylighting Control
  ,                                       !- Secondary Daylighting Control Name
  ,                                       !- Fraction of Zone Controlled by Secondary Daylighting Control
  ,                                       !- Illuminance Map Name
  {42b50684-b5eb-4765-af86-a05c4e8d70c9}, !- Group Rendering Name
  {874708f7-7cc0-4b9a-9eba-3a939837c8c1}, !- Thermostat Name
  Yes;                                    !- Use Ideal Air Loads

OS:Node,
  {51885be9-488f-418e-bd97-1292ee2ab8e4}, !- Handle
  Node 1,                                 !- Name
  {e6fea126-59dd-4ba2-80f7-d16b126aded7}, !- Inlet Port
  ;                                       !- Outlet Port

OS:Connection,
  {e6fea126-59dd-4ba2-80f7-d16b126aded7}, !- Handle
  {609f7551-cd6e-4c14-9de1-10fe4321822e}, !- Source Object
  11,                                     !- Outlet Port
  {51885be9-488f-418e-bd97-1292ee2ab8e4}, !- Target Object
  2;                                      !- Inlet Port

OS:PortList,
  {8919c7c8-5cf4-46e8-99f3-daeef187c21d}, !- Handle
  {609f7551-cd6e-4c14-9de1-10fe4321822e}; !- HVAC Component

OS:PortList,
  {6b1f8562-f18e-42d3-9b2d-b18c436f0a56}, !- Handle
  {609f7551-cd6e-4c14-9de1-10fe4321822e}; !- HVAC Component

OS:PortList,
  {0d3d9ad0-4f42-42f0-b568-a0a7512b9ca4}, !- Handle
  {609f7551-cd6e-4c14-9de1-10fe4321822e}; !- HVAC Component

OS:Sizing:Zone,
  {2758a10b-efd7-4f8e-b4bc-a5138900428a}, !- Handle
  {609f7551-cd6e-4c14-9de1-10fe4321822e}, !- Zone or ZoneList Name
  SupplyAirTemperature,                   !- Zone Cooling Design Supply Air Temperature Input Method
  14,                                     !- Zone Cooling Design Supply Air Temperature {C}
  11.11,                                  !- Zone Cooling Design Supply Air Temperature Difference {deltaC}
  SupplyAirTemperature,                   !- Zone Heating Design Supply Air Temperature Input Method
  40,                                     !- Zone Heating Design Supply Air Temperature {C}
  11.11,                                  !- Zone Heating Design Supply Air Temperature Difference {deltaC}
  0.0085,                                 !- Zone Cooling Design Supply Air Humidity Ratio {kg-H2O/kg-air}
  0.008,                                  !- Zone Heating Design Supply Air Humidity Ratio {kg-H2O/kg-air}
  ,                                       !- Zone Heating Sizing Factor
  ,                                       !- Zone Cooling Sizing Factor
  DesignDay,                              !- Cooling Design Air Flow Method
  ,                                       !- Cooling Design Air Flow Rate {m3/s}
  ,                                       !- Cooling Minimum Air Flow per Zone Floor Area {m3/s-m2}
  ,                                       !- Cooling Minimum Air Flow {m3/s}
  ,                                       !- Cooling Minimum Air Flow Fraction
  DesignDay,                              !- Heating Design Air Flow Method
  ,                                       !- Heating Design Air Flow Rate {m3/s}
  ,                                       !- Heating Maximum Air Flow per Zone Floor Area {m3/s-m2}
  ,                                       !- Heating Maximum Air Flow {m3/s}
  ,                                       !- Heating Maximum Air Flow Fraction
  No,                                     !- Account for Dedicated Outdoor Air System
  NeutralSupplyAir,                       !- Dedicated Outdoor Air System Control Strategy
  autosize,                               !- Dedicated Outdoor Air Low Setpoint Temperature for Design {C}
  autosize,                               !- Dedicated Outdoor Air High Setpoint Temperature for Design {C}
  Sensible Load Only No Latent Load,      !- Zone Load Sizing Method
  HumidityRatioDifference,                !- Zone Latent Cooling Design Supply Air Humidity Ratio Input Method
  ,                                       !- Zone Dehumidification Design Supply Air Humidity Ratio {kgWater/kgDryAir}
  0.005,                                  !- Zone Cooling Design Supply Air Humidity Ratio Difference {kgWater/kgDryAir}
  HumidityRatioDifference,                !- Zone Latent Heating Design Supply Air Humidity Ratio Input Method
  ,                                       !- Zone Humidification Design Supply Air Humidity Ratio {kgWater/kgDryAir}
  0.005;                                  !- Zone Humidification Design Supply Air Humidity Ratio Difference {kgWater/kgDryAir}

OS:ZoneHVAC:EquipmentList,
  {8784808e-2f1a-423b-b249-42635566a337}, !- Handle
  Zone HVAC Equipment List 1,             !- Name
  {609f7551-cd6e-4c14-9de1-10fe4321822e}; !- Thermal Zone

OS:Rendering:Color,
  {42b50684-b5eb-4765-af86-a05c4e8d70c9}, !- Handle
  Rendering Color 1,                      !- Name
  136,                                    !- Rendering Red Value
  204,                                    !- Rendering Green Value
  238,                                    !- Rendering Blue Value
  255;                                    !- Rendering Alpha Value

OS:BuildingStory,
  {f1f54e2d-5e2e-421d-bab7-165f5d06a9bc}, !- Handle
  Story 1,                                !- Name
  0,                                      !- Nominal Z Coordinate {m}
  2.4384,                                 !- Nominal Floor to Floor Height {m}
  ,                                       !- Default Construction Set Name
  ,                                       !- Default Schedule Set Name
  {497fbc62-90e9-4843-b1df-8ca43ee1b935}, !- Group Rendering Name
  2.4384;                                 !- Nominal Floor to Ceiling Height {m}

OS:Rendering:Color,
  {497fbc62-90e9-4843-b1df-8ca43ee1b935}, !- Handle
  Rendering Color 2,                      !- Name
  51,                                     !- Rendering Red Value
  34,                                     !- Rendering Green Value
  136,                                    !- Rendering Blue Value
  255;                                    !- Rendering Alpha Value

OS:Surface,
  {e7a54a54-033c-4732-b433-9667430ba8a7}, !- Handle
  Face 1,                                 !- Name
  RoofCeiling,                            !- Surface Type
  ,                                       !- Construction Name
  {25a2f01c-2974-4b90-badd-3a2e998ee6c9}, !- Space Name
  Outdoors,                               !- Outside Boundary Condition
  ,                                       !- Outside Boundary Condition Object
  SunExposed,                             !- Sun Exposure
  WindExposed,                            !- Wind Exposure
  ,                                       !- View Factor to Ground
  ,                                       !- Number of Vertices
  32.004, 0, 2.4384,                      !- X,Y,Z Vertex 1 {m}
  32.004, 27.432, 2.4384,                 !- X,Y,Z Vertex 2 {m}
  18.288, 27.432, 2.4384,                 !- X,Y,Z Vertex 3 {m}
  18.288, 18.288, 2.4384,                 !- X,Y,Z Vertex 4 {m}
  0, 18.288, 2.4384,                      !- X,Y,Z Vertex 5 {m}
  0, 0, 2.4384;                           !- X,Y,Z Vertex 6 {m}

OS:Surface,
  {e9083d58-6a81-4f16-8466-f815f1fafb6f}, !- Handle
  Face 2,                                 !- Name
  Wall,                                   !- Surface Type
  ,                                       !- Construction Name
  {25a2f01c-2974-4b90-badd-3a2e998ee6c9}, !- Space Name
  Outdoors,                               !- Outside Boundary Condition
  ,                                       !- Outside Boundary Condition Object
  SunExposed,                             !- Sun Exposure
  WindExposed,                            !- Wind Exposure
  ,                                       !- View Factor to Ground
  ,                                       !- Number of Vertices
  0, 0, 2.4384,                           !- X,Y,Z Vertex 1 {m}
  0, 18.288, 2.4384,                      !- X,Y,Z Vertex 2 {m}
  0, 18.288, 0,                           !- X,Y,Z Vertex 3 {m}
  0, 0, 0;                                !- X,Y,Z Vertex 4 {m}

OS:SubSurface,
  {db243b71-6c9e-4b22-be44-fef11ce470ca}, !- Handle
  Face 3,                                 !- Name
  FixedWindow,                            !- Sub Surface Type
  ,                                       !- Construction Name
  {e9083d58-6a81-4f16-8466-f815f1fafb6f}, !- Surface Name
  ,                                       !- Outside Boundary Condition Object
  ,                                       !- View Factor to Ground
  ,                                       !- Frame and Divider Name
  ,                                       !- Multiplier
  ,                                       !- Number of Vertices
  0, 18.2626, 1.64795766016713,           !- X,Y,Z Vertex 1 {m}
  0, 18.2626, 0.9144,                     !- X,Y,Z Vertex 2 {m}
  0, 0.0253999999999976, 0.9144,          !- X,Y,Z Vertex 3 {m}
  0, 0.0253999999999976, 1.64795766016713; !- X,Y,Z Vertex 4 {m}

OS:Surface,
  {1e32a089-bf33-4cd8-a328-daa12b5a3945}, !- Handle
  Face 4,                                 !- Name
  Wall,                                   !- Surface Type
  ,                                       !- Construction Name
  {25a2f01c-2974-4b90-badd-3a2e998ee6c9}, !- Space Name
  Outdoors,                               !- Outside Boundary Condition
  ,                                       !- Outside Boundary Condition Object
  SunExposed,                             !- Sun Exposure
  WindExposed,                            !- Wind Exposure
  ,                                       !- View Factor to Ground
  ,                                       !- Number of Vertices
  0, 18.288, 2.4384,                      !- X,Y,Z Vertex 1 {m}
  18.288, 18.288, 2.4384,                 !- X,Y,Z Vertex 2 {m}
  18.288, 18.288, 0,                      !- X,Y,Z Vertex 3 {m}
  0, 18.288, 0;                           !- X,Y,Z Vertex 4 {m}

OS:SubSurface,
  {c314348b-7f26-4052-8cd3-e1bcd3f714a6}, !- Handle
  Face 5,                                 !- Name
  FixedWindow,                            !- Sub Surface Type
  ,                                       !- Construction Name
  {1e32a089-bf33-4cd8-a328-daa12b5a3945}, !- Surface Name
  ,                                       !- Outside Boundary Condition Object
  ,                                       !- View Factor to Ground
  ,                                       !- Frame and Divider Name
  ,                                       !- Multiplier
  ,                                       !- Number of Vertices
  18.2626, 18.288, 1.64795766016713,      !- X,Y,Z Vertex 1 {m}
  18.2626, 18.288, 0.9144,                !- X,Y,Z Vertex 2 {m}
  0.0253999999999976, 18.288, 0.9144,     !- X,Y,Z Vertex 3 {m}
  0.0253999999999976, 18.288, 1.64795766016713; !- X,Y,Z Vertex 4 {m}

OS:Surface,
  {0254de02-1744-4096-975e-797dcf7669f1}, !- Handle
  Face 6,                                 !- Name
  Wall,                                   !- Surface Type
  ,                                       !- Construction Name
  {25a2f01c-2974-4b90-badd-3a2e998ee6c9}, !- Space Name
  Outdoors,                               !- Outside Boundary Condition
  ,                                       !- Outside Boundary Condition Object
  SunExposed,                             !- Sun Exposure
  WindExposed,                            !- Wind Exposure
  ,                                       !- View Factor to Ground
  ,                                       !- Number of Vertices
  18.288, 18.288, 2.4384,                 !- X,Y,Z Vertex 1 {m}
  18.288, 27.432, 2.4384,                 !- X,Y,Z Vertex 2 {m}
  18.288, 27.432, 0,                      !- X,Y,Z Vertex 3 {m}
  18.288, 18.288, 0;                      !- X,Y,Z Vertex 4 {m}

OS:SubSurface,
  {4d92e456-3ff3-4345-99a7-dcf58ac5be5b}, !- Handle
  Face 7,                                 !- Name
  FixedWindow,                            !- Sub Surface Type
  ,                                       !- Construction Name
  {0254de02-1744-4096-975e-797dcf7669f1}, !- Surface Name
  ,                                       !- Outside Boundary Condition Object
  ,                                       !- View Factor to Ground
  ,                                       !- Frame and Divider Name
  ,                                       !- Multiplier
  ,                                       !- Number of Vertices
  18.288, 27.4066, 1.65000670391061,      !- X,Y,Z Vertex 1 {m}
  18.288, 27.4066, 0.9144,                !- X,Y,Z Vertex 2 {m}
  18.288, 18.3134, 0.9144,                !- X,Y,Z Vertex 3 {m}
  18.288, 18.3134, 1.65000670391061;      !- X,Y,Z Vertex 4 {m}

OS:Surface,
  {f7c9a130-038c-4d5b-b685-b64d115555bd}, !- Handle
  Face 8,                                 !- Name
  Wall,                                   !- Surface Type
  ,                                       !- Construction Name
  {25a2f01c-2974-4b90-badd-3a2e998ee6c9}, !- Space Name
  Outdoors,                               !- Outside Boundary Condition
  ,                                       !- Outside Boundary Condition Object
  SunExposed,                             !- Sun Exposure
  WindExposed,                            !- Wind Exposure
  ,                                       !- View Factor to Ground
  ,                                       !- Number of Vertices
  18.288, 27.432, 2.4384,                 !- X,Y,Z Vertex 1 {m}
  32.004, 27.432, 2.4384,                 !- X,Y,Z Vertex 2 {m}
  32.004, 27.432, 0,                      !- X,Y,Z Vertex 3 {m}
  18.288, 27.432, 0;                      !- X,Y,Z Vertex 4 {m}

OS:SubSurface,
  {52d013b5-84b6-4814-a93e-cb0db7733386}, !- Handle
  Face 9,                                 !- Name
  FixedWindow,                            !- Sub Surface Type
  ,                                       !- Construction Name
  {f7c9a130-038c-4d5b-b685-b64d115555bd}, !- Surface Name
  ,                                       !- Outside Boundary Condition Object
  ,                                       !- View Factor to Ground
  ,                                       !- Frame and Divider Name
  ,                                       !- Multiplier
  ,                                       !- Number of Vertices
  31.9786, 27.432, 1.64863940520446,      !- X,Y,Z Vertex 1 {m}
  31.9786, 27.432, 0.9144,                !- X,Y,Z Vertex 2 {m}
  18.3134, 27.432, 0.9144,                !- X,Y,Z Vertex 3 {m}
  18.3134, 27.432, 1.64863940520446;      !- X,Y,Z Vertex 4 {m}

OS:Surface,
  {ca0056d6-306c-4493-a8f9-6de402aec855}, !- Handle
  Face 10,                                !- Name
  Wall,                                   !- Surface Type
  ,                                       !- Construction Name
  {25a2f01c-2974-4b90-badd-3a2e998ee6c9}, !- Space Name
  Outdoors,                               !- Outside Boundary Condition
  ,                                       !- Outside Boundary Condition Object
  SunExposed,                             !- Sun Exposure
  WindExposed,                            !- Wind Exposure
  ,                                       !- View Factor to Ground
  ,                                       !- Number of Vertices
  32.004, 27.432, 2.4384,                 !- X,Y,Z Vertex 1 {m}
  32.004, 0, 2.4384,                      !- X,Y,Z Vertex 2 {m}
  32.004, 0, 0,                           !- X,Y,Z Vertex 3 {m}
  32.004, 27.432, 0;                      !- X,Y,Z Vertex 4 {m}

OS:SubSurface,
  {67ed72cf-e837-43d0-851c-3033b46fb65f}, !- Handle
  Face 11,                                !- Name
  FixedWindow,                            !- Sub Surface Type
  ,                                       !- Construction Name
  {ca0056d6-306c-4493-a8f9-6de402aec855}, !- Surface Name
  ,                                       !- Outside Boundary Condition Object
  ,                                       !- View Factor to Ground
  ,                                       !- Frame and Divider Name
  ,                                       !- Multiplier
  ,                                       !- Number of Vertices
  32.004, 0.0254, 1.64727717996289,       !- X,Y,Z Vertex 1 {m}
  32.004, 0.0254, 0.9144,                 !- X,Y,Z Vertex 2 {m}
  32.004, 27.4066, 0.9144,                !- X,Y,Z Vertex 3 {m}
  32.004, 27.4066, 1.64727717996289;      !- X,Y,Z Vertex 4 {m}

OS:Surface,
  {32866ddd-8ba0-438e-a0fa-282280e5d131}, !- Handle
  Face 12,                                !- Name
  Wall,                                   !- Surface Type
  ,                                       !- Construction Name
  {25a2f01c-2974-4b90-badd-3a2e998ee6c9}, !- Space Name
  Outdoors,                               !- Outside Boundary Condition
  ,                                       !- Outside Boundary Condition Object
  SunExposed,                             !- Sun Exposure
  WindExposed,                            !- Wind Exposure
  ,                                       !- View Factor to Ground
  ,                                       !- Number of Vertices
  32.004, 0, 2.4384,                      !- X,Y,Z Vertex 1 {m}
  0, 0, 2.4384,                           !- X,Y,Z Vertex 2 {m}
  0, 0, 0,                                !- X,Y,Z Vertex 3 {m}
  32.004, 0, 0;                           !- X,Y,Z Vertex 4 {m}

OS:SubSurface,
  {4fbe563b-cb96-45e4-b4c4-68f7f8ab1270}, !- Handle
  Face 13,                                !- Name
  FixedWindow,                            !- Sub Surface Type
  ,                                       !- Construction Name
  {32866ddd-8ba0-438e-a0fa-282280e5d131}, !- Surface Name
  ,                                       !- Outside Boundary Condition Object
  ,                                       !- View Factor to Ground
  ,                                       !- Frame and Divider Name
  ,                                       !- Multiplier
  ,                                       !- Number of Vertices
  0.0254, 0, 1.64708298887122,            !- X,Y,Z Vertex 1 {m}
  0.0254, 0, 0.9144,                      !- X,Y,Z Vertex 2 {m}
  31.9786, 0, 0.9144,                     !- X,Y,Z Vertex 3 {m}
  31.9786, 0, 1.64708298887122;           !- X,Y,Z Vertex 4 {m}

OS:Surface,
  {c94c489d-adc9-4d9e-86d8-491591d82e2f}, !- Handle
  Face 0,                                 !- Name
  Floor,                                  !- Surface Type
  ,                                       !- Construction Name
  {25a2f01c-2974-4b90-badd-3a2e998ee6c9}, !- Space Name
  Ground,                                 !- Outside Boundary Condition
  ,                                       !- Outside Boundary Condition Object
  NoSun,                                  !- Sun Exposure
  NoWind,                                 !- Wind Exposure
  ,                                       !- View Factor to Ground
  ,                                       !- Number of Vertices
  0, 0, 0,                                !- X,Y,Z Vertex 1 {m}
  0, 18.288, 0,                           !- X,Y,Z Vertex 2 {m}
  18.288, 18.288, 0,                      !- X,Y,Z Vertex 3 {m}
  18.288, 27.432, 0,                      !- X,Y,Z Vertex 4 {m}
  32.004, 27.432, 0,                      !- X,Y,Z Vertex 5 {m}
  32.004, 0, 0;                           !- X,Y,Z Vertex 6 {m}

OS:WeatherFile,
  {09edc0cf-168a-4bac-860c-bf1271ba8338}, !- Handle
  Columbia Regional Airport,              !- City
  MO,                                     !- State Province Region
  USA,                                    !- Country
  TMY3,                                   !- Data Source
  724450,                                 !- WMO Number
  38.82,                                  !- Latitude {deg}
  -92.22,                                 !- Longitude {deg}
  -6,                                     !- Time Zone {hr}
  272,                                    !- Elevation {m}
  USA_MO_Columbia.Rgnl.AP.724450_TMY3.epw, !- Url
  9EB50EF2,                               !- Checksum
  ,                                       !- Start Date Actual Year
  Sunday;                                 !- Start Day of Week

OS:SizingPeriod:DesignDay,
  {5a2f71d6-c352-41e7-9bb5-20d3099c9f58}, !- Handle
  Columbia Regional Airport Ann Clg .4% Condns Enth=>MDB, !- Name
  31.9,                                   !- Maximum Dry-Bulb Temperature {C}
  11,                                     !- Daily Dry-Bulb Temperature Range {deltaC}
  98100,                                  !- Barometric Pressure {Pa}
  4.4,                                    !- Wind Speed {m/s}
  220,                                    !- Wind Direction {deg}
  ,                                       !- Sky Clearness
  No,                                     !- Rain Indicator
  No,                                     !- Snow Indicator
  21,                                     !- Day of Month
  7,                                      !- Month
  SummerDesignDay,                        !- Day Type
  No,                                     !- Daylight Saving Time Indicator
  Enthalpy,                               !- Humidity Condition Type
  ,                                       !- Humidity Condition Day Schedule Name
  23,                                     !- Wetbulb or DewPoint at Maximum Dry-Bulb {C}
  ,                                       !- Humidity Ratio at Maximum Dry-Bulb {kgWater/kgDryAir}
  82700,                                  !- Enthalpy at Maximum Dry-Bulb {J/kg}
  DefaultMultipliers,                     !- Dry-Bulb Temperature Range Modifier Type
  ,                                       !- Dry-Bulb Temperature Range Modifier Day Schedule Name
  ASHRAETau,                              !- Solar Model Indicator
  ,                                       !- Beam Solar Day Schedule Name
  ,                                       !- Diffuse Solar Day Schedule Name
  0.448,                                  !- ASHRAE Clear Sky Optical Depth for Beam Irradiance {dimensionless}
  2.098;                                  !- ASHRAE Clear Sky Optical Depth for Diffuse Irradiance {dimensionless}

OS:SizingPeriod:DesignDay,
  {5bb2b7e3-f48f-4c4b-9874-e2636c1f0220}, !- Handle
  Columbia Regional Airport Ann Clg .4% Condns DP=>MDB, !- Name
  29.6,                                   !- Maximum Dry-Bulb Temperature {C}
  11,                                     !- Daily Dry-Bulb Temperature Range {deltaC}
  98100,                                  !- Barometric Pressure {Pa}
  4.4,                                    !- Wind Speed {m/s}
  220,                                    !- Wind Direction {deg}
  ,                                       !- Sky Clearness
  No,                                     !- Rain Indicator
  No,                                     !- Snow Indicator
  21,                                     !- Day of Month
  7,                                      !- Month
  SummerDesignDay,                        !- Day Type